# WEL package for  MODFLOW-2005, generated by Flopy.
        25         0 
        25         0 # stress period 1
         1         1        25             1.0
         1         2        25             1.0
         1         3        25             1.0
         1         4        25             1.0
         1         5        25             1.0
         1         6        25             1.0
         1         7        25             1.0
         1         8        25             1.0
         1         9        25             1.0
         1        10        25             1.0
         1        11        25             1.0
         1        12        25             1.0
         1        13        25             1.0
         1        14        25             1.0
         1        15        25             1.0
         1        16        25             1.0
         1        17        25             1.0
         1        18        25             1.0
         1        19        25             1.0
         1        20        25             1.0
         1        21        25             1.0
         1        22        25             1.0
         1        23        25             1.0
         1        24        25             1.0
         1        25        25             1.0
