# Name file for MODFLOW-2005, generated by Flopy version 3.3.0.
#xll:0.0; yll:0.0; rotation:0.0; units:meters; lenuni:2; start_datetime:1-1-1970
LIST               2  my_testmodel.list
DIS               11  my_testmodel.dis
BAS6              13  my_testmodel.bas
LPF               15  my_testmodel.lpf
OC                14  my_testmodel.oc
PCG               27  my_testmodel.pcg
DATA(BINARY)       1  my_testmodel.cbc REPLACE
DATA(BINARY)      51  my_testmodel.hds REPLACE
